*SPEF "ieee 1481-1999"
*DESIGN "CF_SRAM_4096x32"
*DATE "15:03:29 Sunday July 20, 2025"
*VENDOR "The OpenROAD Project"
*PROGRAM "OpenROAD"
*VERSION "da0053d7b0014ab9c87ea148875ff6c2a0f9b658"
*DESIGN_FLOW "NAME_SCOPE LOCAL" "PIN_CAP NONE"
*DIVIDER /
*DELIMITER :
*BUS_DELIMITER []
*T_UNIT 1 NS
*C_UNIT 1 PF
*R_UNIT 1 OHM
*L_UNIT 1 HENRY

*NAME_MAP
*3 wb_clk_i
*4 wb_rst_i
*5 wbs_ack_o
*6 wbs_adr_i[0]
*7 wbs_adr_i[10]
*8 wbs_adr_i[11]
*9 wbs_adr_i[12]
*10 wbs_adr_i[13]
*11 wbs_adr_i[14]
*12 wbs_adr_i[15]
*13 wbs_adr_i[16]
*14 wbs_adr_i[17]
*15 wbs_adr_i[18]
*16 wbs_adr_i[19]
*17 wbs_adr_i[1]
*18 wbs_adr_i[20]
*19 wbs_adr_i[21]
*20 wbs_adr_i[22]
*21 wbs_adr_i[23]
*22 wbs_adr_i[24]
*23 wbs_adr_i[25]
*24 wbs_adr_i[26]
*25 wbs_adr_i[27]
*26 wbs_adr_i[28]
*27 wbs_adr_i[29]
*28 wbs_adr_i[2]
*29 wbs_adr_i[30]
*30 wbs_adr_i[31]
*31 wbs_adr_i[3]
*32 wbs_adr_i[4]
*33 wbs_adr_i[5]
*34 wbs_adr_i[6]
*35 wbs_adr_i[7]
*36 wbs_adr_i[8]
*37 wbs_adr_i[9]
*38 wbs_cyc_i
*39 wbs_dat_i[0]
*40 wbs_dat_i[10]
*41 wbs_dat_i[11]
*42 wbs_dat_i[12]
*43 wbs_dat_i[13]
*44 wbs_dat_i[14]
*45 wbs_dat_i[15]
*46 wbs_dat_i[16]
*47 wbs_dat_i[17]
*48 wbs_dat_i[18]
*49 wbs_dat_i[19]
*50 wbs_dat_i[1]
*51 wbs_dat_i[20]
*52 wbs_dat_i[21]
*53 wbs_dat_i[22]
*54 wbs_dat_i[23]
*55 wbs_dat_i[24]
*56 wbs_dat_i[25]
*57 wbs_dat_i[26]
*58 wbs_dat_i[27]
*59 wbs_dat_i[28]
*60 wbs_dat_i[29]
*61 wbs_dat_i[2]
*62 wbs_dat_i[30]
*63 wbs_dat_i[31]
*64 wbs_dat_i[3]
*65 wbs_dat_i[4]
*66 wbs_dat_i[5]
*67 wbs_dat_i[6]
*68 wbs_dat_i[7]
*69 wbs_dat_i[8]
*70 wbs_dat_i[9]
*71 wbs_dat_o[0]
*72 wbs_dat_o[10]
*73 wbs_dat_o[11]
*74 wbs_dat_o[12]
*75 wbs_dat_o[13]
*76 wbs_dat_o[14]
*77 wbs_dat_o[15]
*78 wbs_dat_o[16]
*79 wbs_dat_o[17]
*80 wbs_dat_o[18]
*81 wbs_dat_o[19]
*82 wbs_dat_o[1]
*83 wbs_dat_o[20]
*84 wbs_dat_o[21]
*85 wbs_dat_o[22]
*86 wbs_dat_o[23]
*87 wbs_dat_o[24]
*88 wbs_dat_o[25]
*89 wbs_dat_o[26]
*90 wbs_dat_o[27]
*91 wbs_dat_o[28]
*92 wbs_dat_o[29]
*93 wbs_dat_o[2]
*94 wbs_dat_o[30]
*95 wbs_dat_o[31]
*96 wbs_dat_o[3]
*97 wbs_dat_o[4]
*98 wbs_dat_o[5]
*99 wbs_dat_o[6]
*100 wbs_dat_o[7]
*101 wbs_dat_o[8]
*102 wbs_dat_o[9]
*103 wbs_sel_i[0]
*104 wbs_sel_i[1]
*105 wbs_sel_i[2]
*106 wbs_sel_i[3]
*107 wbs_stb_i
*108 wbs_we_i
*109 _000_
*110 _001_
*111 _002_
*112 _003_
*113 _004_
*114 _005_
*115 _006_
*116 _007_
*117 _008_
*118 _009_
*119 _010_
*120 _011_
*121 _012_
*122 _013_
*123 _014_
*124 _015_
*125 _016_
*126 _017_
*127 _018_
*128 _019_
*129 _020_
*130 _021_
*131 _022_
*132 _023_
*133 _024_
*134 _025_
*135 _026_
*136 _027_
*137 _028_
*138 _029_
*139 _030_
*140 _031_
*141 _032_
*142 _033_
*143 _034_
*144 _035_
*145 _036_
*146 _037_
*147 _038_
*148 _039_
*149 _040_
*150 _041_
*151 _042_
*152 _043_
*153 _044_
*154 _045_
*155 _046_
*156 _047_
*157 _048_
*158 _049_
*159 _050_
*160 _051_
*161 _052_
*162 _053_
*163 _054_
*164 _055_
*165 _056_
*166 _057_
*167 _058_
*168 _059_
*169 _060_
*170 _061_
*171 _062_
*172 _063_
*173 _064_
*174 _065_
*175 _066_
*176 _067_
*177 _068_
*178 _069_
*179 _070_
*180 _071_
*181 _072_
*182 _073_
*183 _074_
*184 _075_
*185 _076_
*186 _077_
*187 _078_
*188 _079_
*189 _080_
*190 _081_
*191 _082_
*192 _083_
*193 _084_
*194 _085_
*195 _086_
*196 clknet_0_wb_clk_i
*197 clknet_1_0__leaf_wb_clk_i
*198 clknet_1_1__leaf_wb_clk_i
*199 i_ram_wb_controller\.EN
*200 i_ram_wb_controller\.R_WB
*201 i_sram\.sram_cs\[0\]
*202 i_sram\.sram_cs\[1\]
*203 i_sram\.sram_cs\[2\]
*204 i_sram\.sram_cs\[3\]
*205 i_sram\.sram_do_0\[0\]
*206 i_sram\.sram_do_0\[10\]
*207 i_sram\.sram_do_0\[11\]
*208 i_sram\.sram_do_0\[12\]
*209 i_sram\.sram_do_0\[13\]
*210 i_sram\.sram_do_0\[14\]
*211 i_sram\.sram_do_0\[15\]
*212 i_sram\.sram_do_0\[16\]
*213 i_sram\.sram_do_0\[17\]
*214 i_sram\.sram_do_0\[18\]
*215 i_sram\.sram_do_0\[19\]
*216 i_sram\.sram_do_0\[1\]
*217 i_sram\.sram_do_0\[20\]
*218 i_sram\.sram_do_0\[21\]
*219 i_sram\.sram_do_0\[22\]
*220 i_sram\.sram_do_0\[23\]
*221 i_sram\.sram_do_0\[24\]
*222 i_sram\.sram_do_0\[25\]
*223 i_sram\.sram_do_0\[26\]
*224 i_sram\.sram_do_0\[27\]
*225 i_sram\.sram_do_0\[28\]
*226 i_sram\.sram_do_0\[29\]
*227 i_sram\.sram_do_0\[2\]
*228 i_sram\.sram_do_0\[30\]
*229 i_sram\.sram_do_0\[31\]
*230 i_sram\.sram_do_0\[3\]
*231 i_sram\.sram_do_0\[4\]
*232 i_sram\.sram_do_0\[5\]
*233 i_sram\.sram_do_0\[6\]
*234 i_sram\.sram_do_0\[7\]
*235 i_sram\.sram_do_0\[8\]
*236 i_sram\.sram_do_0\[9\]
*237 i_sram\.sram_do_1\[0\]
*238 i_sram\.sram_do_1\[10\]
*239 i_sram\.sram_do_1\[11\]
*240 i_sram\.sram_do_1\[12\]
*241 i_sram\.sram_do_1\[13\]
*242 i_sram\.sram_do_1\[14\]
*243 i_sram\.sram_do_1\[15\]
*244 i_sram\.sram_do_1\[16\]
*245 i_sram\.sram_do_1\[17\]
*246 i_sram\.sram_do_1\[18\]
*247 i_sram\.sram_do_1\[19\]
*248 i_sram\.sram_do_1\[1\]
*249 i_sram\.sram_do_1\[20\]
*250 i_sram\.sram_do_1\[21\]
*251 i_sram\.sram_do_1\[22\]
*252 i_sram\.sram_do_1\[23\]
*253 i_sram\.sram_do_1\[24\]
*254 i_sram\.sram_do_1\[25\]
*255 i_sram\.sram_do_1\[26\]
*256 i_sram\.sram_do_1\[27\]
*257 i_sram\.sram_do_1\[28\]
*258 i_sram\.sram_do_1\[29\]
*259 i_sram\.sram_do_1\[2\]
*260 i_sram\.sram_do_1\[30\]
*261 i_sram\.sram_do_1\[31\]
*262 i_sram\.sram_do_1\[3\]
*263 i_sram\.sram_do_1\[4\]
*264 i_sram\.sram_do_1\[5\]
*265 i_sram\.sram_do_1\[6\]
*266 i_sram\.sram_do_1\[7\]
*267 i_sram\.sram_do_1\[8\]
*268 i_sram\.sram_do_1\[9\]
*269 i_sram\.sram_do_2\[0\]
*270 i_sram\.sram_do_2\[10\]
*271 i_sram\.sram_do_2\[11\]
*272 i_sram\.sram_do_2\[12\]
*273 i_sram\.sram_do_2\[13\]
*274 i_sram\.sram_do_2\[14\]
*275 i_sram\.sram_do_2\[15\]
*276 i_sram\.sram_do_2\[16\]
*277 i_sram\.sram_do_2\[17\]
*278 i_sram\.sram_do_2\[18\]
*279 i_sram\.sram_do_2\[19\]
*280 i_sram\.sram_do_2\[1\]
*281 i_sram\.sram_do_2\[20\]
*282 i_sram\.sram_do_2\[21\]
*283 i_sram\.sram_do_2\[22\]
*284 i_sram\.sram_do_2\[23\]
*285 i_sram\.sram_do_2\[24\]
*286 i_sram\.sram_do_2\[25\]
*287 i_sram\.sram_do_2\[26\]
*288 i_sram\.sram_do_2\[27\]
*289 i_sram\.sram_do_2\[28\]
*290 i_sram\.sram_do_2\[29\]
*291 i_sram\.sram_do_2\[2\]
*292 i_sram\.sram_do_2\[30\]
*293 i_sram\.sram_do_2\[31\]
*294 i_sram\.sram_do_2\[3\]
*295 i_sram\.sram_do_2\[4\]
*296 i_sram\.sram_do_2\[5\]
*297 i_sram\.sram_do_2\[6\]
*298 i_sram\.sram_do_2\[7\]
*299 i_sram\.sram_do_2\[8\]
*300 i_sram\.sram_do_2\[9\]
*301 i_sram\.sram_do_3\[0\]
*302 i_sram\.sram_do_3\[10\]
*303 i_sram\.sram_do_3\[11\]
*304 i_sram\.sram_do_3\[12\]
*305 i_sram\.sram_do_3\[13\]
*306 i_sram\.sram_do_3\[14\]
*307 i_sram\.sram_do_3\[15\]
*308 i_sram\.sram_do_3\[16\]
*309 i_sram\.sram_do_3\[17\]
*310 i_sram\.sram_do_3\[18\]
*311 i_sram\.sram_do_3\[19\]
*312 i_sram\.sram_do_3\[1\]
*313 i_sram\.sram_do_3\[20\]
*314 i_sram\.sram_do_3\[21\]
*315 i_sram\.sram_do_3\[22\]
*316 i_sram\.sram_do_3\[23\]
*317 i_sram\.sram_do_3\[24\]
*318 i_sram\.sram_do_3\[25\]
*319 i_sram\.sram_do_3\[26\]
*320 i_sram\.sram_do_3\[27\]
*321 i_sram\.sram_do_3\[28\]
*322 i_sram\.sram_do_3\[29\]
*323 i_sram\.sram_do_3\[2\]
*324 i_sram\.sram_do_3\[30\]
*325 i_sram\.sram_do_3\[31\]
*326 i_sram\.sram_do_3\[3\]
*327 i_sram\.sram_do_3\[4\]
*328 i_sram\.sram_do_3\[5\]
*329 i_sram\.sram_do_3\[6\]
*330 i_sram\.sram_do_3\[7\]
*331 i_sram\.sram_do_3\[8\]
*332 i_sram\.sram_do_3\[9\]
*333 i_sram\.sram_scan_out_cc_0
*334 i_sram\.sram_scan_out_cc_1
*335 i_sram\.sram_scan_out_cc_2
*336 i_sram\.sram_scan_out_cc_3
*337 net1
*338 net10
*339 net100
*340 net101
*341 net102
*342 net103
*343 net104
*344 net105
*345 net106
*346 net107
*347 net108
*348 net109
*349 net11
*350 net110
*351 net111
*352 net112
*353 net113
*354 net114
*355 net115
*356 net116
*357 net117
*358 net118
*359 net119
*360 net12
*361 net120
*362 net121
*363 net122
*364 net123
*365 net124
*366 net125
*367 net126
*368 net127
*369 net128
*370 net129
*371 net13
*372 net130
*373 net131
*374 net132
*375 net133
*376 net134
*377 net135
*378 net136
*379 net137
*380 net138
*381 net139
*382 net14
*383 net140
*384 net141
*385 net142
*386 net143
*387 net144
*388 net145
*389 net146
*390 net147
*391 net148
*392 net149
*393 net15
*394 net150
*395 net151
*396 net152
*397 net153
*398 net154
*399 net155
*400 net156
*401 net157
*402 net158
*403 net159
*404 net16
*405 net160
*406 net161
*407 net162
*408 net163
*409 net164
*410 net165
*411 net166
*412 net167
*413 net168
*414 net169
*415 net17
*416 net170
*417 net171
*418 net172
*419 net173
*420 net174
*421 net175
*422 net176
*423 net177
*424 net178
*425 net179
*426 net18
*427 net180
*428 net181
*429 net182
*430 net183
*431 net184
*432 net185
*433 net186
*434 net187
*435 net188
*436 net189
*437 net19
*438 net190
*439 net191
*440 net192
*441 net193
*442 net194
*443 net195
*444 net196
*445 net197
*446 net198
*447 net199
*448 net2
*449 net20
*450 net200
*451 net201
*452 net202
*453 net203
*454 net204
*455 net205
*456 net206
*457 net207
*458 net208
*459 net209
*460 net21
*461 net210
*462 net211
*463 net212
*464 net213
*465 net214
*466 net215
*467 net216
*468 net217
*469 net218
*470 net219
*471 net22
*472 net220
*473 net221
*474 net222
*475 net223
*476 net224
*477 net225
*478 net226
*479 net227
*480 net228
*481 net229
*482 net23
*483 net230
*484 net231
*485 net232
*486 net233
*487 net234
*488 net235
*489 net236
*490 net237
*491 net238
*492 net239
*493 net24
*494 net240
*495 net241
*496 net242
*497 net243
*498 net244
*499 net245
*500 net246
*501 net247
*502 net248
*503 net249
*504 net25
*505 net250
*506 net251
*507 net252
*508 net253
*509 net254
*510 net255
*511 net256
*512 net257
*513 net258
*514 net259
*515 net26
*516 net260
*517 net261
*518 net262
*519 net263
*520 net264
*521 net265
*522 net266
*523 net267
*524 net268
*525 net269
*526 net27
*527 net270
*528 net271
*529 net272
*530 net273
*531 net274
*532 net275
*533 net276
*534 net277
*535 net278
*536 net279
*537 net28
*538 net280
*539 net281
*540 net282
*541 net283
*542 net284
*543 net285
*544 net286
*545 net287
*546 net288
*547 net289
*548 net29
*549 net290
*550 net291
*551 net292
*552 net293
*553 net294
*554 net295
*555 net296
*556 net297
*557 net298
*558 net299
*559 net3
*560 net30
*561 net300
*562 net301
*563 net302
*564 net303
*565 net304
*566 net305
*567 net306
*568 net307
*569 net308
*570 net31
*571 net32
*572 net33
*573 net34
*574 net35
*575 net36
*576 net37
*577 net38
*578 net39
*579 net4
*580 net40
*581 net41
*582 net42
*583 net43
*584 net44
*585 net45
*586 net46
*587 net47
*588 net48
*589 net49
*590 net5
*591 net50
*592 net51
*593 net52
*594 net53
*595 net54
*596 net55
*597 net56
*598 net57
*599 net58
*600 net59
*601 net6
*602 net60
*603 net61
*604 net62
*605 net63
*606 net64
*607 net65
*608 net66
*609 net67
*610 net68
*611 net69
*612 net7
*613 net70
*614 net71
*615 net72
*616 net73
*617 net74
*618 net75
*619 net76
*620 net77
*621 net78
*622 net79
*623 net8
*624 net80
*625 net81
*626 net82
*627 net83
*628 net84
*629 net85
*630 net86
*631 net87
*632 net88
*633 net89
*634 net9
*635 net90
*636 net91
*637 net92
*638 net93
*639 net94
*640 net95
*641 net96
*642 net97
*643 net98
*644 net99
*645 ANTENNA_1
*646 ANTENNA_10
*647 ANTENNA_100
*648 ANTENNA_101
*649 ANTENNA_102
*650 ANTENNA_103
*651 ANTENNA_104
*652 ANTENNA_105
*653 ANTENNA_106
*654 ANTENNA_107
*655 ANTENNA_108
*656 ANTENNA_109
*657 ANTENNA_11
*658 ANTENNA_110
*659 ANTENNA_111
*660 ANTENNA_112
*661 ANTENNA_113
*662 ANTENNA_114
*663 ANTENNA_115
*664 ANTENNA_116
*665 ANTENNA_117
*666 ANTENNA_118
*667 ANTENNA_119
*668 ANTENNA_12
*669 ANTENNA_120
*670 ANTENNA_121
*671 ANTENNA_122
*672 ANTENNA_123
*673 ANTENNA_124
*674 ANTENNA_125
*675 ANTENNA_126
*676 ANTENNA_127
*677 ANTENNA_128
*678 ANTENNA_129
*679 ANTENNA_13
*680 ANTENNA_130
*681 ANTENNA_131
*682 ANTENNA_132
*683 ANTENNA_133
*684 ANTENNA_134
*685 ANTENNA_135
*686 ANTENNA_136
*687 ANTENNA_137
*688 ANTENNA_138
*689 ANTENNA_139
*690 ANTENNA_14
*691 ANTENNA_140
*692 ANTENNA_141
*693 ANTENNA_142
*694 ANTENNA_143
*695 ANTENNA_144
*696 ANTENNA_145
*697 ANTENNA_146
*698 ANTENNA_147
*699 ANTENNA_148
*700 ANTENNA_149
*701 ANTENNA_15
*702 ANTENNA_150
*703 ANTENNA_151
*704 ANTENNA_152
*705 ANTENNA_153
*706 ANTENNA_154
*707 ANTENNA_155
*708 ANTENNA_156
*709 ANTENNA_157
*710 ANTENNA_158
*711 ANTENNA_159
*712 ANTENNA_16
*713 ANTENNA_160
*714 ANTENNA_161
*715 ANTENNA_162
*716 ANTENNA_163
*717 ANTENNA_164
*718 ANTENNA_165
*719 ANTENNA_166
*720 ANTENNA_167
*721 ANTENNA_168
*722 ANTENNA_169
*723 ANTENNA_17
*724 ANTENNA_170
*725 ANTENNA_171
*726 ANTENNA_172
*727 ANTENNA_173
*728 ANTENNA_174
*729 ANTENNA_175
*730 ANTENNA_176
*731 ANTENNA_177
*732 ANTENNA_178
*733 ANTENNA_179
*734 ANTENNA_18
*735 ANTENNA_180
*736 ANTENNA_181
*737 ANTENNA_182
*738 ANTENNA_183
*739 ANTENNA_184
*740 ANTENNA_185
*741 ANTENNA_186
*742 ANTENNA_187
*743 ANTENNA_188
*744 ANTENNA_189
*745 ANTENNA_19
*746 ANTENNA_190
*747 ANTENNA_191
*748 ANTENNA_192
*749 ANTENNA_193
*750 ANTENNA_194
*751 ANTENNA_195
*752 ANTENNA_196
*753 ANTENNA_197
*754 ANTENNA_198
*755 ANTENNA_199
*756 ANTENNA_2
*757 ANTENNA_20
*758 ANTENNA_200
*759 ANTENNA_201
*760 ANTENNA_202
*761 ANTENNA_203
*762 ANTENNA_204
*763 ANTENNA_205
*764 ANTENNA_206
*765 ANTENNA_207
*766 ANTENNA_208
*767 ANTENNA_209
*768 ANTENNA_21
*769 ANTENNA_210
*770 ANTENNA_211
*771 ANTENNA_212
*772 ANTENNA_213
*773 ANTENNA_214
*774 ANTENNA_215
*775 ANTENNA_216
*776 ANTENNA_217
*777 ANTENNA_218
*778 ANTENNA_219
*779 ANTENNA_22
*780 ANTENNA_220
*781 ANTENNA_221
*782 ANTENNA_222
*783 ANTENNA_223
*784 ANTENNA_224
*785 ANTENNA_225
*786 ANTENNA_226
*787 ANTENNA_227
*788 ANTENNA_228
*789 ANTENNA_229
*790 ANTENNA_23
*791 ANTENNA_230
*792 ANTENNA_231
*793 ANTENNA_232
*794 ANTENNA_233
*795 ANTENNA_234
*796 ANTENNA_235
*797 ANTENNA_236
*798 ANTENNA_237
*799 ANTENNA_238
*800 ANTENNA_239
*801 ANTENNA_24
*802 ANTENNA_240
*803 ANTENNA_241
*804 ANTENNA_242
*805 ANTENNA_243
*806 ANTENNA_244
*807 ANTENNA_245
*808 ANTENNA_246
*809 ANTENNA_247
*810 ANTENNA_248
*811 ANTENNA_249
*812 ANTENNA_25
*813 ANTENNA_250
*814 ANTENNA_251
*815 ANTENNA_252
*816 ANTENNA_253
*817 ANTENNA_254
*818 ANTENNA_255
*819 ANTENNA_256
*820 ANTENNA_257
*821 ANTENNA_258
*822 ANTENNA_259
*823 ANTENNA_26
*824 ANTENNA_260
*825 ANTENNA_261
*826 ANTENNA_262
*827 ANTENNA_263
*828 ANTENNA_264
*829 ANTENNA_265
*830 ANTENNA_266
*831 ANTENNA_267
*832 ANTENNA_268
*833 ANTENNA_269
*834 ANTENNA_27
*835 ANTENNA_270
*836 ANTENNA_271
*837 ANTENNA_272
*838 ANTENNA_273
*839 ANTENNA_274
*840 ANTENNA_275
*841 ANTENNA_276
*842 ANTENNA_277
*843 ANTENNA_278
*844 ANTENNA_279
*845 ANTENNA_28
*846 ANTENNA_280
*847 ANTENNA_281
*848 ANTENNA_282
*849 ANTENNA_283
*850 ANTENNA_284
*851 ANTENNA_285
*852 ANTENNA_286
*853 ANTENNA_287
*854 ANTENNA_288
*855 ANTENNA_289
*856 ANTENNA_29
*857 ANTENNA_290
*858 ANTENNA_291
*859 ANTENNA_292
*860 ANTENNA_293
*861 ANTENNA_294
*862 ANTENNA_295
*863 ANTENNA_296
*864 ANTENNA_297
*865 ANTENNA_298
*866 ANTENNA_299
*867 ANTENNA_3
*868 ANTENNA_30
*869 ANTENNA_300
*870 ANTENNA_301
*871 ANTENNA_302
*872 ANTENNA_303
*873 ANTENNA_304
*874 ANTENNA_305
*875 ANTENNA_306
*876 ANTENNA_307
*877 ANTENNA_308
*878 ANTENNA_309
*879 ANTENNA_31
*880 ANTENNA_310
*881 ANTENNA_311
*882 ANTENNA_312
*883 ANTENNA_313
*884 ANTENNA_314
*885 ANTENNA_315
*886 ANTENNA_316
*887 ANTENNA_317
*888 ANTENNA_318
*889 ANTENNA_319
*890 ANTENNA_32
*891 ANTENNA_320
*892 ANTENNA_321
*893 ANTENNA_322
*894 ANTENNA_323
*895 ANTENNA_324
*896 ANTENNA_325
*897 ANTENNA_326
*898 ANTENNA_327
*899 ANTENNA_328
*900 ANTENNA_329
*901 ANTENNA_33
*902 ANTENNA_330
*903 ANTENNA_34
*904 ANTENNA_35
*905 ANTENNA_36
*906 ANTENNA_37
*907 ANTENNA_38
*908 ANTENNA_39
*909 ANTENNA_4
*910 ANTENNA_40
*911 ANTENNA_41
*912 ANTENNA_42
*913 ANTENNA_43
*914 ANTENNA_44
*915 ANTENNA_45
*916 ANTENNA_46
*917 ANTENNA_47
*918 ANTENNA_48
*919 ANTENNA_49
*920 ANTENNA_5
*921 ANTENNA_50
*922 ANTENNA_51
*923 ANTENNA_52
*924 ANTENNA_53
*925 ANTENNA_54
*926 ANTENNA_55
*927 ANTENNA_56
*928 ANTENNA_57
*929 ANTENNA_58
*930 ANTENNA_59
*931 ANTENNA_6
*932 ANTENNA_60
*933 ANTENNA_61
*934 ANTENNA_62
*935 ANTENNA_63
*936 ANTENNA_64
*937 ANTENNA_65
*938 ANTENNA_66
*939 ANTENNA_67
*940 ANTENNA_68
*941 ANTENNA_69
*942 ANTENNA_7
*943 ANTENNA_70
*944 ANTENNA_71
*945 ANTENNA_72
*946 ANTENNA_73
*947 ANTENNA_74
*948 ANTENNA_75
*949 ANTENNA_76
*950 ANTENNA_77
*951 ANTENNA_78
*952 ANTENNA_79
*953 ANTENNA_8
*954 ANTENNA_80
*955 ANTENNA_81
*956 ANTENNA_82
*957 ANTENNA_83
*958 ANTENNA_84
*959 ANTENNA_85
*960 ANTENNA_86
*961 ANTENNA_87
*962 ANTENNA_88
*963 ANTENNA_89
*964 ANTENNA_9
*965 ANTENNA_90
*966 ANTENNA_91
*967 ANTENNA_92
*968 ANTENNA_93
*969 ANTENNA_94
*970 ANTENNA_95
*971 ANTENNA_96
*972 ANTENNA_97
*973 ANTENNA_98
*974 ANTENNA_99
*975 FILLER_0_0_1005
*976 FILLER_0_0_1009
*977 FILLER_0_0_1035
*978 FILLER_0_0_1037
*979 FILLER_0_0_1057
*980 FILLER_0_0_1063
*981 FILLER_0_0_1089
*982 FILLER_0_0_109
*983 FILLER_0_0_1117
*984 FILLER_0_0_113
*985 FILLER_0_0_1145
*986 FILLER_0_0_1165
*987 FILLER_0_0_1174
*988 FILLER_0_0_1201
*989 FILLER_0_0_1229
*990 FILLER_0_0_125
*991 FILLER_0_0_1257
*992 FILLER_0_0_1277
*993 FILLER_0_0_1313
*994 FILLER_0_0_1341
*995 FILLER_0_0_1369
*996 FILLER_0_0_137
*997 FILLER_0_0_1397
*998 FILLER_0_0_141
*999 FILLER_0_0_1425
*1000 FILLER_0_0_1429
*1001 FILLER_0_0_1455
*1002 FILLER_0_0_1481
*1003 FILLER_0_0_1485
*1004 FILLER_0_0_15
*1005 FILLER_0_0_1507
*1006 FILLER_0_0_1511
*1007 FILLER_0_0_1529
*1008 FILLER_0_0_153
*1009 FILLER_0_0_1537
*1010 FILLER_0_0_1541
*1011 FILLER_0_0_165
*1012 FILLER_0_0_169
*1013 FILLER_0_0_181
*1014 FILLER_0_0_193
*1015 FILLER_0_0_197
*1016 FILLER_0_0_209
*1017 FILLER_0_0_221
*1018 FILLER_0_0_225
*1019 FILLER_0_0_237
*1020 FILLER_0_0_249
*1021 FILLER_0_0_253
*1022 FILLER_0_0_265
*1023 FILLER_0_0_27
*1024 FILLER_0_0_277
*1025 FILLER_0_0_281
*1026 FILLER_0_0_29
*1027 FILLER_0_0_293
*1028 FILLER_0_0_3
*1029 FILLER_0_0_305
*1030 FILLER_0_0_309
*1031 FILLER_0_0_321
*1032 FILLER_0_0_333
*1033 FILLER_0_0_337
*1034 FILLER_0_0_349
*1035 FILLER_0_0_361
*1036 FILLER_0_0_365
*1037 FILLER_0_0_377
*1038 FILLER_0_0_389
*1039 FILLER_0_0_393
*1040 FILLER_0_0_405
*1041 FILLER_0_0_41
*1042 FILLER_0_0_417
*1043 FILLER_0_0_421
*1044 FILLER_0_0_433
*1045 FILLER_0_0_445
*1046 FILLER_0_0_449
*1047 FILLER_0_0_464
*1048 FILLER_0_0_497
*1049 FILLER_0_0_503
*1050 FILLER_0_0_513
*1051 FILLER_0_0_53
*1052 FILLER_0_0_557
*1053 FILLER_0_0_561
*1054 FILLER_0_0_57
*1055 FILLER_0_0_587
*1056 FILLER_0_0_589
*1057 FILLER_0_0_617
*1058 FILLER_0_0_645
*1059 FILLER_0_0_69
*1060 FILLER_0_0_697
*1061 FILLER_0_0_701
*1062 FILLER_0_0_729
*1063 FILLER_0_0_757
*1064 FILLER_0_0_785
*1065 FILLER_0_0_807
*1066 FILLER_0_0_81
*1067 FILLER_0_0_811
*1068 FILLER_0_0_837
*1069 FILLER_0_0_85
*1070 FILLER_0_0_865
*1071 FILLER_0_0_893
*1072 FILLER_0_0_921
*1073 FILLER_0_0_949
*1074 FILLER_0_0_97
*1075 FILLER_0_0_977
*1076 FILLER_0_100_1485
*1077 FILLER_0_100_1489
*1078 FILLER_0_100_1493
*1079 FILLER_0_100_1505
*1080 FILLER_0_100_1509
*1081 FILLER_0_100_1511
*1082 FILLER_0_100_1523
*1083 FILLER_0_100_1535
*1084 FILLER_0_100_1547
*1085 FILLER_0_100_702
*1086 FILLER_0_100_706
*1087 FILLER_0_100_718
*1088 FILLER_0_100_726
*1089 FILLER_0_100_728
*1090 FILLER_0_100_740
*1091 FILLER_0_100_752
*1092 FILLER_0_100_764
*1093 FILLER_0_101_1485
*1094 FILLER_0_101_1497
*1095 FILLER_0_101_1509
*1096 FILLER_0_101_1521
*1097 FILLER_0_101_1533
*1098 FILLER_0_101_1537
*1099 FILLER_0_101_1539
*1100 FILLER_0_101_1547
*1101 FILLER_0_101_702
*1102 FILLER_0_101_714
*1103 FILLER_0_101_726
*1104 FILLER_0_101_738
*1105 FILLER_0_101_750
*1106 FILLER_0_101_754
*1107 FILLER_0_101_756
*1108 FILLER_0_101_764
*1109 FILLER_0_102_1485
*1110 FILLER_0_102_1497
*1111 FILLER_0_102_1509
*1112 FILLER_0_102_1511
*1113 FILLER_0_102_1523
*1114 FILLER_0_102_1535
*1115 FILLER_0_102_1547
*1116 FILLER_0_102_702
*1117 FILLER_0_102_714
*1118 FILLER_0_102_726
*1119 FILLER_0_102_728
*1120 FILLER_0_102_740
*1121 FILLER_0_102_752
*1122 FILLER_0_102_764
*1123 FILLER_0_103_1485
*1124 FILLER_0_103_1489
*1125 FILLER_0_103_1501
*1126 FILLER_0_103_1513
*1127 FILLER_0_103_1525
*1128 FILLER_0_103_1537
*1129 FILLER_0_103_1539
*1130 FILLER_0_103_1547
*1131 FILLER_0_103_722
*1132 FILLER_0_103_734
*1133 FILLER_0_103_746
*1134 FILLER_0_103_754
*1135 FILLER_0_103_756
*1136 FILLER_0_103_764
*1137 FILLER_0_104_1485
*1138 FILLER_0_104_1489
*1139 FILLER_0_104_1493
*1140 FILLER_0_104_1505
*1141 FILLER_0_104_1509
*1142 FILLER_0_104_1511
*1143 FILLER_0_104_1523
*1144 FILLER_0_104_1535
*1145 FILLER_0_104_1547
*1146 FILLER_0_104_702
*1147 FILLER_0_104_706
*1148 FILLER_0_104_718
*1149 FILLER_0_104_726
*1150 FILLER_0_104_728
*1151 FILLER_0_104_740
*1152 FILLER_0_104_752
*1153 FILLER_0_104_764
*1154 FILLER_0_105_1485
*1155 FILLER_0_105_1489
*1156 FILLER_0_105_1501
*1157 FILLER_0_105_1513
*1158 FILLER_0_105_1525
*1159 FILLER_0_105_1537
*1160 FILLER_0_105_1539
*1161 FILLER_0_105_1547
*1162 FILLER_0_105_702
*1163 FILLER_0_105_714
*1164 FILLER_0_105_726
*1165 FILLER_0_105_738
*1166 FILLER_0_105_750
*1167 FILLER_0_105_754
*1168 FILLER_0_105_756
*1169 FILLER_0_105_764
*1170 FILLER_0_106_1485
*1171 FILLER_0_106_1497
*1172 FILLER_0_106_1509
*1173 FILLER_0_106_1511
*1174 FILLER_0_106_1523
*1175 FILLER_0_106_1535
*1176 FILLER_0_106_1547
*1177 FILLER_0_106_702
*1178 FILLER_0_106_714
*1179 FILLER_0_106_726
*1180 FILLER_0_106_728
*1181 FILLER_0_106_740
*1182 FILLER_0_106_752
*1183 FILLER_0_106_764
*1184 FILLER_0_107_1485
*1185 FILLER_0_107_1497
*1186 FILLER_0_107_1509
*1187 FILLER_0_107_1521
*1188 FILLER_0_107_1533
*1189 FILLER_0_107_1537
*1190 FILLER_0_107_1539
*1191 FILLER_0_107_1547
*1192 FILLER_0_107_702
*1193 FILLER_0_107_714
*1194 FILLER_0_107_726
*1195 FILLER_0_107_738
*1196 FILLER_0_107_750
*1197 FILLER_0_107_754
*1198 FILLER_0_107_756
*1199 FILLER_0_107_764
*1200 FILLER_0_108_1485
*1201 FILLER_0_108_1489
*1202 FILLER_0_108_1501
*1203 FILLER_0_108_1509
*1204 FILLER_0_108_1511
*1205 FILLER_0_108_1523
*1206 FILLER_0_108_1535
*1207 FILLER_0_108_1547
*1208 FILLER_0_108_702
*1209 FILLER_0_108_706
*1210 FILLER_0_108_718
*1211 FILLER_0_108_726
*1212 FILLER_0_108_728
*1213 FILLER_0_108_740
*1214 FILLER_0_108_752
*1215 FILLER_0_108_764
*1216 FILLER_0_109_1485
*1217 FILLER_0_109_1497
*1218 FILLER_0_109_1509
*1219 FILLER_0_109_1521
*1220 FILLER_0_109_1533
*1221 FILLER_0_109_1537
*1222 FILLER_0_109_1539
*1223 FILLER_0_109_1547
*1224 FILLER_0_109_702
*1225 FILLER_0_109_714
*1226 FILLER_0_109_726
*1227 FILLER_0_109_738
*1228 FILLER_0_109_750
*1229 FILLER_0_109_754
*1230 FILLER_0_109_756
*1231 FILLER_0_109_764
*1232 FILLER_0_10_1485
*1233 FILLER_0_10_1497
*1234 FILLER_0_10_1509
*1235 FILLER_0_10_1511
*1236 FILLER_0_10_1523
*1237 FILLER_0_10_1535
*1238 FILLER_0_10_1547
*1239 FILLER_0_10_702
*1240 FILLER_0_10_714
*1241 FILLER_0_10_726
*1242 FILLER_0_10_728
*1243 FILLER_0_10_740
*1244 FILLER_0_10_757
*1245 FILLER_0_10_765
*1246 FILLER_0_110_1485
*1247 FILLER_0_110_1497
*1248 FILLER_0_110_1509
*1249 FILLER_0_110_1511
*1250 FILLER_0_110_1523
*1251 FILLER_0_110_1535
*1252 FILLER_0_110_1547
*1253 FILLER_0_110_702
*1254 FILLER_0_110_714
*1255 FILLER_0_110_726
*1256 FILLER_0_110_728
*1257 FILLER_0_110_740
*1258 FILLER_0_110_752
*1259 FILLER_0_110_764
*1260 FILLER_0_111_1485
*1261 FILLER_0_111_1497
*1262 FILLER_0_111_1509
*1263 FILLER_0_111_1521
*1264 FILLER_0_111_1533
*1265 FILLER_0_111_1537
*1266 FILLER_0_111_1539
*1267 FILLER_0_111_1547
*1268 FILLER_0_111_702
*1269 FILLER_0_111_714
*1270 FILLER_0_111_726
*1271 FILLER_0_111_738
*1272 FILLER_0_111_750
*1273 FILLER_0_111_754
*1274 FILLER_0_111_756
*1275 FILLER_0_111_764
*1276 FILLER_0_112_1485
*1277 FILLER_0_112_1489
*1278 FILLER_0_112_1501
*1279 FILLER_0_112_1509
*1280 FILLER_0_112_1511
*1281 FILLER_0_112_1523
*1282 FILLER_0_112_1535
*1283 FILLER_0_112_1547
*1284 FILLER_0_112_702
*1285 FILLER_0_112_706
*1286 FILLER_0_112_718
*1287 FILLER_0_112_726
*1288 FILLER_0_112_728
*1289 FILLER_0_112_740
*1290 FILLER_0_112_752
*1291 FILLER_0_112_764
*1292 FILLER_0_113_1485
*1293 FILLER_0_113_1497
*1294 FILLER_0_113_1509
*1295 FILLER_0_113_1521
*1296 FILLER_0_113_1533
*1297 FILLER_0_113_1537
*1298 FILLER_0_113_1539
*1299 FILLER_0_113_1547
*1300 FILLER_0_113_702
*1301 FILLER_0_113_714
*1302 FILLER_0_113_726
*1303 FILLER_0_113_738
*1304 FILLER_0_113_750
*1305 FILLER_0_113_754
*1306 FILLER_0_113_756
*1307 FILLER_0_113_764
*1308 FILLER_0_114_1485
*1309 FILLER_0_114_1497
*1310 FILLER_0_114_1509
*1311 FILLER_0_114_1511
*1312 FILLER_0_114_1523
*1313 FILLER_0_114_1535
*1314 FILLER_0_114_1547
*1315 FILLER_0_114_702
*1316 FILLER_0_114_714
*1317 FILLER_0_114_726
*1318 FILLER_0_114_728
*1319 FILLER_0_114_740
*1320 FILLER_0_114_752
*1321 FILLER_0_114_764
*1322 FILLER_0_115_1485
*1323 FILLER_0_115_1489
*1324 FILLER_0_115_1493
*1325 FILLER_0_115_1505
*1326 FILLER_0_115_1517
*1327 FILLER_0_115_1529
*1328 FILLER_0_115_1537
*1329 FILLER_0_115_1539
*1330 FILLER_0_115_1547
*1331 FILLER_0_115_702
*1332 FILLER_0_115_714
*1333 FILLER_0_115_726
*1334 FILLER_0_115_738
*1335 FILLER_0_115_750
*1336 FILLER_0_115_754
*1337 FILLER_0_115_756
*1338 FILLER_0_115_764
*1339 FILLER_0_116_1485
*1340 FILLER_0_116_1489
*1341 FILLER_0_116_1493
*1342 FILLER_0_116_1497
*1343 FILLER_0_116_1509
*1344 FILLER_0_116_1511
*1345 FILLER_0_116_1523
*1346 FILLER_0_116_1535
*1347 FILLER_0_116_1547
*1348 FILLER_0_116_702
*1349 FILLER_0_116_706
*1350 FILLER_0_116_718
*1351 FILLER_0_116_726
*1352 FILLER_0_116_728
*1353 FILLER_0_116_740
*1354 FILLER_0_116_752
*1355 FILLER_0_116_764
*1356 FILLER_0_117_1485
*1357 FILLER_0_117_1489
*1358 FILLER_0_117_1501
*1359 FILLER_0_117_1513
*1360 FILLER_0_117_1525
*1361 FILLER_0_117_1537
*1362 FILLER_0_117_1539
*1363 FILLER_0_117_1547
*1364 FILLER_0_117_702
*1365 FILLER_0_117_714
*1366 FILLER_0_117_726
*1367 FILLER_0_117_738
*1368 FILLER_0_117_750
*1369 FILLER_0_117_754
*1370 FILLER_0_117_756
*1371 FILLER_0_117_764
*1372 FILLER_0_118_1485
*1373 FILLER_0_118_1497
*1374 FILLER_0_118_1509
*1375 FILLER_0_118_1511
*1376 FILLER_0_118_1523
*1377 FILLER_0_118_1535
*1378 FILLER_0_118_1547
*1379 FILLER_0_118_702
*1380 FILLER_0_118_714
*1381 FILLER_0_118_726
*1382 FILLER_0_118_728
*1383 FILLER_0_118_740
*1384 FILLER_0_118_752
*1385 FILLER_0_119_1485
*1386 FILLER_0_119_1497
*1387 FILLER_0_119_1509
*1388 FILLER_0_119_1521
*1389 FILLER_0_119_1533
*1390 FILLER_0_119_1537
*1391 FILLER_0_119_1539
*1392 FILLER_0_119_1547
*1393 FILLER_0_119_702
*1394 FILLER_0_119_714
*1395 FILLER_0_119_726
*1396 FILLER_0_119_738
*1397 FILLER_0_119_750
*1398 FILLER_0_119_754
*1399 FILLER_0_119_756
*1400 FILLER_0_119_764
*1401 FILLER_0_11_1485
*1402 FILLER_0_11_1497
*1403 FILLER_0_11_1509
*1404 FILLER_0_11_1521
*1405 FILLER_0_11_1533
*1406 FILLER_0_11_1537
*1407 FILLER_0_11_1539
*1408 FILLER_0_11_1547
*1409 FILLER_0_11_702
*1410 FILLER_0_11_714
*1411 FILLER_0_11_726
*1412 FILLER_0_11_738
*1413 FILLER_0_11_750
*1414 FILLER_0_11_754
*1415 FILLER_0_11_756
*1416 FILLER_0_11_764
*1417 FILLER_0_120_1485
*1418 FILLER_0_120_1489
*1419 FILLER_0_120_1501
*1420 FILLER_0_120_1509
*1421 FILLER_0_120_1511
*1422 FILLER_0_120_1523
*1423 FILLER_0_120_1535
*1424 FILLER_0_120_1547
*1425 FILLER_0_120_702
*1426 FILLER_0_120_706
*1427 FILLER_0_120_718
*1428 FILLER_0_120_726
*1429 FILLER_0_120_728
*1430 FILLER_0_120_740
*1431 FILLER_0_120_752
*1432 FILLER_0_120_764
*1433 FILLER_0_121_1485
*1434 FILLER_0_121_1497
*1435 FILLER_0_121_1509
*1436 FILLER_0_121_1521
*1437 FILLER_0_121_1533
*1438 FILLER_0_121_1537
*1439 FILLER_0_121_1539
*1440 FILLER_0_121_1547
*1441 FILLER_0_121_702
*1442 FILLER_0_121_714
*1443 FILLER_0_121_726
*1444 FILLER_0_121_738
*1445 FILLER_0_121_750
*1446 FILLER_0_121_754
*1447 FILLER_0_121_756
*1448 FILLER_0_121_764
*1449 FILLER_0_122_1485
*1450 FILLER_0_122_1497
*1451 FILLER_0_122_1509
*1452 FILLER_0_122_1511
*1453 FILLER_0_122_1523
*1454 FILLER_0_122_1535
*1455 FILLER_0_122_1547
*1456 FILLER_0_122_702
*1457 FILLER_0_122_714
*1458 FILLER_0_122_726
*1459 FILLER_0_122_728
*1460 FILLER_0_122_740
*1461 FILLER_0_122_752
*1462 FILLER_0_122_764
*1463 FILLER_0_123_1485
*1464 FILLER_0_123_1497
*1465 FILLER_0_123_1509
*1466 FILLER_0_123_1521
*1467 FILLER_0_123_1533
*1468 FILLER_0_123_1537
*1469 FILLER_0_123_1539
*1470 FILLER_0_123_1547
*1471 FILLER_0_123_702
*1472 FILLER_0_123_714
*1473 FILLER_0_123_726
*1474 FILLER_0_123_738
*1475 FILLER_0_123_750
*1476 FILLER_0_123_754
*1477 FILLER_0_123_756
*1478 FILLER_0_123_764
*1479 FILLER_0_124_1485
*1480 FILLER_0_124_1489
*1481 FILLER_0_124_1501
*1482 FILLER_0_124_1509
*1483 FILLER_0_124_1511
*1484 FILLER_0_124_1523
*1485 FILLER_0_124_1535
*1486 FILLER_0_124_1547
*1487 FILLER_0_124_702
*1488 FILLER_0_124_706
*1489 FILLER_0_124_718
*1490 FILLER_0_124_726
*1491 FILLER_0_124_728
*1492 FILLER_0_124_740
*1493 FILLER_0_124_752
*1494 FILLER_0_124_764
*1495 FILLER_0_125_1485
*1496 FILLER_0_125_1497
*1497 FILLER_0_125_1509
*1498 FILLER_0_125_1521
*1499 FILLER_0_125_1533
*1500 FILLER_0_125_1537
*1501 FILLER_0_125_1539
*1502 FILLER_0_125_1547
*1503 FILLER_0_125_702
*1504 FILLER_0_125_714
*1505 FILLER_0_125_726
*1506 FILLER_0_125_738
*1507 FILLER_0_125_750
*1508 FILLER_0_125_754
*1509 FILLER_0_125_756
*1510 FILLER_0_125_764
*1511 FILLER_0_126_1485
*1512 FILLER_0_126_1497
*1513 FILLER_0_126_1509
*1514 FILLER_0_126_1511
*1515 FILLER_0_126_1523
*1516 FILLER_0_126_1535
*1517 FILLER_0_126_1547
*1518 FILLER_0_126_702
*1519 FILLER_0_126_714
*1520 FILLER_0_126_726
*1521 FILLER_0_126_728
*1522 FILLER_0_126_740
*1523 FILLER_0_126_752
*1524 FILLER_0_126_764
*1525 FILLER_0_127_1485
*1526 FILLER_0_127_1497
*1527 FILLER_0_127_1509
*1528 FILLER_0_127_1521
*1529 FILLER_0_127_1533
*1530 FILLER_0_127_1537
*1531 FILLER_0_127_1539
*1532 FILLER_0_127_1547
*1533 FILLER_0_127_702
*1534 FILLER_0_127_714
*1535 FILLER_0_127_726
*1536 FILLER_0_127_738
*1537 FILLER_0_127_750
*1538 FILLER_0_127_754
*1539 FILLER_0_127_756
*1540 FILLER_0_127_764
*1541 FILLER_0_128_1485
*1542 FILLER_0_128_1497
*1543 FILLER_0_128_1509
*1544 FILLER_0_128_1511
*1545 FILLER_0_128_1523
*1546 FILLER_0_128_1535
*1547 FILLER_0_128_1547
*1548 FILLER_0_128_702
*1549 FILLER_0_128_707
*1550 FILLER_0_128_718
*1551 FILLER_0_128_722
*1552 FILLER_0_128_726
*1553 FILLER_0_128_728
*1554 FILLER_0_128_740
*1555 FILLER_0_128_752
*1556 FILLER_0_128_764
*1557 FILLER_0_129_1485
*1558 FILLER_0_129_1489
*1559 FILLER_0_129_1501
*1560 FILLER_0_129_1513
*1561 FILLER_0_129_1525
*1562 FILLER_0_129_1537
*1563 FILLER_0_129_1539
*1564 FILLER_0_129_1547
*1565 FILLER_0_129_702
*1566 FILLER_0_129_706
*1567 FILLER_0_129_718
*1568 FILLER_0_129_730
*1569 FILLER_0_129_742